Version 4
SHEET 1 3512 1144
WIRE -928 -1008 -1040 -1008
WIRE -784 -1008 -928 -1008
WIRE -544 -1008 -544 -1040
WIRE -544 -1008 -720 -1008
WIRE -1040 -992 -1040 -1008
WIRE -1120 -848 -1120 -880
WIRE -928 -784 -928 -1008
WIRE -848 -784 -928 -784
WIRE -544 -784 -544 -1008
WIRE -544 -784 -624 -784
WIRE -1120 -720 -1120 -768
WIRE -848 -720 -1120 -720
WIRE -416 -720 -624 -720
WIRE -1456 -672 -1552 -672
WIRE -1392 -672 -1456 -672
WIRE -1232 -672 -1312 -672
WIRE -1184 -672 -1232 -672
WIRE -848 -656 -1024 -656
WIRE -480 -656 -624 -656
WIRE -1024 -640 -1024 -656
WIRE -1456 -624 -1456 -672
WIRE -1232 -624 -1232 -672
WIRE -848 -592 -896 -592
WIRE -528 -592 -624 -592
WIRE -528 -576 -528 -592
WIRE -896 -560 -896 -592
WIRE -416 -432 -416 -720
WIRE -416 -432 -800 -432
WIRE -480 -304 -480 -656
WIRE -480 -304 -624 -304
WIRE 192 -304 48 -304
WIRE 288 -304 192 -304
WIRE -1024 -272 -1024 -576
WIRE -800 -272 -800 -432
WIRE 192 -240 192 -304
WIRE 288 -192 288 -304
WIRE -624 -176 -624 -304
WIRE -592 -176 -624 -176
WIRE -480 -160 -480 -304
WIRE -480 -160 -528 -160
WIRE -464 -160 -480 -160
WIRE -320 -160 -384 -160
WIRE -192 -160 -320 -160
WIRE -96 -160 -192 -160
WIRE 48 -160 48 -304
WIRE 48 -160 -16 -160
WIRE 96 -160 48 -160
WIRE -1024 -144 -1024 -192
WIRE -800 -144 -800 -192
WIRE -800 -144 -1024 -144
WIRE -704 -144 -800 -144
WIRE -592 -144 -704 -144
WIRE 192 -144 192 -176
WIRE 192 -144 160 -144
WIRE 224 -144 192 -144
WIRE 96 -128 80 -128
WIRE 80 -96 80 -128
WIRE 288 0 288 -96
WIRE -896 32 -896 -16
WIRE 624 80 592 80
WIRE 96 144 -32 144
WIRE -1072 160 -1088 160
WIRE -704 160 -992 160
WIRE -704 176 -704 160
WIRE -688 176 -704 176
WIRE -608 176 -624 176
WIRE 288 176 288 80
WIRE 592 176 592 80
WIRE 592 176 320 176
WIRE 608 176 592 176
WIRE 608 192 608 176
WIRE 624 192 608 192
WIRE 320 208 320 176
WIRE 704 208 704 80
WIRE 704 208 688 208
WIRE 784 208 704 208
WIRE 912 208 864 208
WIRE 624 224 608 224
WIRE -1088 272 -1088 160
WIRE -1088 272 -1104 272
WIRE -992 272 -992 240
WIRE -608 272 -608 256
WIRE -544 272 -608 272
WIRE -496 272 -544 272
WIRE -336 272 -432 272
WIRE -160 272 -256 272
WIRE 96 272 -160 272
WIRE 608 272 608 224
WIRE -608 288 -608 272
WIRE -1184 304 -1184 272
WIRE -896 304 -896 112
WIRE -160 304 -160 272
WIRE -32 304 -32 144
WIRE -832 336 -864 336
WIRE -816 336 -832 336
WIRE -704 368 -704 176
WIRE -704 368 -752 368
WIRE -96 384 -160 384
WIRE -32 384 -96 384
WIRE -1120 400 -1184 400
WIRE -1088 400 -1120 400
WIRE -992 432 -992 400
WIRE -96 432 -96 384
WIRE -1152 464 -1184 464
WIRE -1120 464 -1152 464
WIRE -704 464 -704 448
WIRE -1152 480 -1152 464
WIRE -704 480 -704 464
WIRE -1088 496 -1088 400
WIRE -960 496 -1088 496
WIRE -832 496 -832 336
WIRE -832 496 -896 496
WIRE -240 992 -240 960
WIRE -160 992 -160 960
WIRE -240 1104 -240 1072
WIRE -160 1104 -160 1072
FLAG -96 432 0
FLAG 608 272 0
FLAG -544 272 Vin
FLAG -240 1104 0
FLAG -160 1104 0
FLAG -240 960 Vcc
FLAG -160 960 Vss
FLAG 80 -96 0
FLAG 128 -176 Vcc
FLAG 192 144 Vcc
FLAG 656 176 Vcc
FLAG 192 272 Vss
FLAG 656 240 Vss
FLAG 128 -112 Vss
FLAG -1040 -992 0
FLAG -528 -512 0
FLAG -1456 -544 0
FLAG -1232 -560 0
FLAG -1120 -880 Vcc
FLAG -544 -1040 Vcc
FLAG -896 -560 Vcc
FLAG -560 -128 Vss
FLAG -560 -192 Vcc
FLAG -320 -80 0
FLAG -1120 -624 0
FLAG -1696 -672 0
FLAG -192 -160 Venv
FLAG -992 432 Vss
FLAG -992 240 Vcc
FLAG -1152 480 0
FLAG -1184 304 0
FLAG -704 464 Vss
FLAG -896 -16 0
FLAG -608 368 0
FLAG -704 -80 0
FLAG 912 208 Vout
DATAFLAG -784 160 "$-V(N002)"
SYMBOL LM13700 160 128 R0
SYMATTR InstName U1
SYMBOL TL072 656 144 R0
SYMATTR InstName U2
SYMBOL TL072 128 -208 R0
SYMATTR InstName U3
SYMBOL res 720 64 R90
WINDOW 0 0 56 VBottom 2
WINDOW 3 32 56 VTop 2
SYMATTR InstName R1
SYMATTR Value 150k
SYMBOL res 880 192 R90
WINDOW 0 0 56 VBottom 2
WINDOW 3 32 56 VTop 2
SYMATTR InstName R2
SYMATTR Value 1k
SYMBOL res -16 400 R180
WINDOW 0 36 76 Left 2
WINDOW 3 36 40 Left 2
SYMATTR InstName R3
SYMATTR Value 620
SYMBOL res -144 400 R180
WINDOW 0 36 76 Left 2
WINDOW 3 36 40 Left 2
SYMATTR InstName R4
SYMATTR Value 620
SYMBOL res -352 288 R270
WINDOW 0 32 56 VTop 2
WINDOW 3 0 56 VBottom 2
SYMATTR InstName R5
SYMATTR Value 100k
SYMBOL res 272 -16 R0
SYMATTR InstName R6
SYMATTR Value 6.8k
SYMBOL res 0 -176 R90
WINDOW 0 0 56 VBottom 2
WINDOW 3 32 56 VTop 2
SYMATTR InstName R7
SYMATTR Value 10k
SYMBOL cap -496 256 M90
WINDOW 0 0 32 VBottom 2
WINDOW 3 32 32 VTop 2
SYMATTR InstName C1
SYMATTR Value 470n
SYMBOL pnp 224 -192 R0
SYMATTR InstName Q1
SYMATTR Value 2N3906
SYMBOL diode 208 -176 R180
WINDOW 0 24 64 Left 2
WINDOW 3 -76 60 Left 2
SYMATTR InstName D1
SYMATTR Value 1N4148
SYMBOL voltage -240 976 R0
WINDOW 123 0 0 Left 0
WINDOW 39 0 0 Left 0
SYMATTR InstName V1
SYMATTR Value 12
SYMBOL voltage -160 976 R0
WINDOW 123 0 0 Left 0
WINDOW 39 0 0 Left 0
SYMATTR InstName V2
SYMATTR Value -12
SYMBOL Misc\\NE555 -736 -688 R0
SYMATTR InstName U4
SYMBOL cap -720 -1024 R90
WINDOW 0 0 32 VBottom 2
WINDOW 3 32 32 VTop 2
SYMATTR InstName C2
SYMATTR Value 0.1µ
SYMBOL cap -512 -512 R180
WINDOW 0 24 56 Left 2
WINDOW 3 24 8 Left 2
SYMATTR InstName C3
SYMATTR Value 0.01µ
SYMBOL diode -1040 -640 R0
SYMATTR InstName D2
SYMATTR Value 1N4148
SYMBOL npn -1184 -720 R0
SYMATTR InstName Q2
SYMATTR Value 2N3904
SYMBOL res -1136 -864 R0
SYMATTR InstName R8
SYMATTR Value 10k
SYMBOL res -1296 -688 R90
WINDOW 0 0 56 VBottom 2
WINDOW 3 32 56 VTop 2
SYMATTR InstName R9
SYMATTR Value 100k
SYMBOL res -1440 -528 R180
WINDOW 0 36 76 Left 2
WINDOW 3 36 40 Left 2
SYMATTR InstName R10
SYMATTR Value 100k
SYMBOL cap -1552 -688 R90
WINDOW 0 0 32 VBottom 2
WINDOW 3 32 32 VTop 2
SYMATTR InstName C4
SYMATTR Value 100p
SYMBOL diode -1216 -560 R180
WINDOW 0 24 64 Left 2
WINDOW 3 24 0 Left 2
SYMATTR InstName D3
SYMATTR Value 1N4148
SYMBOL res -1040 -288 R0
SYMATTR InstName R11
SYMATTR Value 5k
SYMBOL res -816 -288 R0
SYMATTR InstName R12
SYMATTR Value 80k
SYMBOL cap -720 -144 R0
SYMATTR InstName C5
SYMATTR Value 4.7µ
SYMBOL TL072 -560 -224 R0
SYMATTR InstName U5
SYMBOL res -368 -176 R90
WINDOW 0 0 56 VBottom 2
WINDOW 3 32 56 VTop 2
SYMATTR InstName R13
SYMATTR Value 1.2k
SYMBOL res -304 -64 R180
WINDOW 0 36 76 Left 2
WINDOW 3 36 40 Left 2
SYMATTR InstName R14
SYMATTR Value 2k
SYMBOL voltage -1600 -672 R90
WINDOW 0 -32 56 VBottom 2
WINDOW 3 32 56 Invisible 2
WINDOW 123 0 0 Left 0
WINDOW 39 0 0 Left 0
SYMATTR InstName Vin1
SYMATTR Value PULSE(0 5 500m 1n 1n 10m 2)
SYMBOL LM13700 -1024 256 R0
SYMATTR InstName U6
SYMBOL diode -1200 400 R0
WINDOW 3 66 55 Left 2
SYMATTR Value 1N4148
SYMATTR InstName D4
SYMBOL diode -1104 464 R180
WINDOW 0 24 64 Left 2
WINDOW 3 90 18 Left 2
SYMATTR InstName D5
SYMATTR Value 1N4148
SYMBOL res -1088 256 R90
WINDOW 0 0 56 VBottom 2
WINDOW 3 32 56 VTop 2
SYMATTR InstName R15
SYMATTR Value 1k
SYMBOL res -976 144 R90
WINDOW 0 0 56 VBottom 2
WINDOW 3 32 56 VTop 2
SYMATTR InstName R16
SYMATTR Value 15k
SYMBOL res -720 352 R0
SYMATTR InstName R17
SYMATTR Value 4.7k
SYMBOL cap -896 480 R90
WINDOW 0 0 32 VBottom 2
WINDOW 3 32 32 VTop 2
SYMATTR InstName C6
SYMATTR Value 50n
SYMBOL current -896 32 R0
WINDOW 123 0 0 Left 0
WINDOW 39 0 0 Left 0
SYMATTR InstName ImodA1
SYMATTR Value 200µ
SYMBOL res -624 160 R0
SYMATTR InstName R18
SYMATTR Value 8k
SYMBOL res -624 272 R0
SYMATTR InstName R19
SYMATTR Value 1k
SYMBOL cap -624 160 R90
WINDOW 0 0 32 VBottom 2
WINDOW 3 32 32 VTop 2
SYMATTR InstName C7
SYMATTR Value 1µ
TEXT 64 1080 Left 2 !.lib TL072.sub\n.lib lm13700.sub
TEXT -1128 -256 Left 2 ;Attack
TEXT -904 -264 Left 2 ;Release
TEXT 72 1128 Left 2 !.tran 5
TEXT 72 1048 Left 2 !.wave "E:\\projet\\op_out.wav" 16 44.1k Vout
