Version 4
SHEET 1 1412 680
WIRE 1264 -752 1264 -784
WIRE 1344 -752 1344 -784
WIRE 1264 -640 1264 -672
WIRE 1344 -640 1344 -672
WIRE 192 -304 48 -304
WIRE 288 -304 192 -304
WIRE 192 -240 192 -304
WIRE 288 -192 288 -304
WIRE -192 -160 -320 -160
WIRE -96 -160 -192 -160
WIRE 48 -160 48 -304
WIRE 48 -160 -16 -160
WIRE 96 -160 48 -160
WIRE 192 -144 192 -176
WIRE 192 -144 160 -144
WIRE 224 -144 192 -144
WIRE 96 -128 80 -128
WIRE 80 -96 80 -128
WIRE 288 0 288 -96
WIRE 624 80 592 80
WIRE 96 144 -32 144
WIRE 288 176 288 80
WIRE 592 176 592 80
WIRE 592 176 320 176
WIRE 608 176 592 176
WIRE 608 192 608 176
WIRE 624 192 608 192
WIRE 320 208 320 176
WIRE 704 208 704 80
WIRE 704 208 688 208
WIRE 784 208 704 208
WIRE 944 208 864 208
WIRE 624 224 608 224
WIRE -544 272 -624 272
WIRE -496 272 -544 272
WIRE -336 272 -432 272
WIRE -160 272 -256 272
WIRE 96 272 -160 272
WIRE 608 272 608 224
WIRE -160 304 -160 272
WIRE -32 304 -32 144
WIRE -96 384 -160 384
WIRE -32 384 -96 384
WIRE -96 432 -96 384
FLAG -96 432 0
FLAG 608 272 0
FLAG -544 272 Vin
FLAG 944 208 Vout
FLAG 1264 -640 0
FLAG 1344 -640 0
FLAG 1264 -784 Vcc
FLAG 1344 -784 Vss
FLAG 80 -96 0
FLAG 128 -176 Vcc
FLAG 192 144 Vcc
FLAG 656 176 Vcc
FLAG 192 272 Vss
FLAG 656 240 Vss
FLAG 128 -112 Vss
FLAG -192 -160 Venv
FLAG -624 352 0
SYMBOL LM13700 160 128 R0
SYMATTR InstName U1
SYMBOL TL072 656 144 R0
SYMATTR InstName U2
SYMBOL TL072 128 -208 R0
SYMATTR InstName U3
SYMBOL res 720 64 R90
WINDOW 0 0 56 VBottom 2
WINDOW 3 32 56 VTop 2
SYMATTR InstName R1
SYMATTR Value 18k
SYMBOL res 880 192 R90
WINDOW 0 0 56 VBottom 2
WINDOW 3 32 56 VTop 2
SYMATTR InstName R2
SYMATTR Value 1k
SYMBOL res -16 400 R180
WINDOW 0 36 76 Left 2
WINDOW 3 36 40 Left 2
SYMATTR InstName R3
SYMATTR Value 620
SYMBOL res -144 400 R180
WINDOW 0 36 76 Left 2
WINDOW 3 36 40 Left 2
SYMATTR InstName R4
SYMATTR Value 620
SYMBOL res -352 288 R270
WINDOW 0 32 56 VTop 2
WINDOW 3 0 56 VBottom 2
SYMATTR InstName R5
SYMATTR Value 100k
SYMBOL res 272 -16 R0
SYMATTR InstName R6
SYMATTR Value 6.8k
SYMBOL res 0 -176 R90
WINDOW 0 0 56 VBottom 2
WINDOW 3 32 56 VTop 2
SYMATTR InstName R7
SYMATTR Value 10k
SYMBOL cap -496 256 M90
WINDOW 0 0 32 VBottom 2
WINDOW 3 32 32 VTop 2
SYMATTR InstName C1
SYMATTR Value 470n
SYMBOL pnp 224 -192 R0
SYMATTR InstName Q1
SYMATTR Value 2N3906
SYMBOL diode 208 -176 R180
WINDOW 0 24 64 Left 2
WINDOW 3 -76 60 Left 2
SYMATTR InstName D1
SYMATTR Value 1N4148
SYMBOL voltage 1264 -768 R0
WINDOW 123 0 0 Left 0
WINDOW 39 0 0 Left 0
SYMATTR InstName V1
SYMATTR Value 12
SYMBOL voltage 1344 -768 R0
WINDOW 123 0 0 Left 0
WINDOW 39 0 0 Left 0
SYMATTR InstName V2
SYMATTR Value -12
SYMBOL voltage -624 256 R0
WINDOW 0 -81 59 Left 2
WINDOW 3 24 96 Invisible 2
WINDOW 123 0 0 Left 0
WINDOW 39 0 0 Left 0
SYMATTR InstName V3
SYMATTR Value SINE(0 1 500)
TEXT 200 568 Left 2 !.lib TL072.sub\n.lib lm13700.sub
TEXT 208 616 Left 2 !.tran 10
