Version 4
SHEET 1 2204 1016
WIRE -928 -80 -928 -128
WIRE -160 -64 -160 -112
WIRE 704 0 320 0
WIRE -160 32 -160 16
WIRE -160 32 -544 32
WIRE -1104 48 -1120 48
WIRE -736 48 -1024 48
WIRE 528 48 512 48
WIRE 896 48 608 48
WIRE -336 64 -352 64
WIRE 32 64 -256 64
WIRE -1120 160 -1120 48
WIRE -1120 160 -1136 160
WIRE -1024 160 -1024 128
WIRE -736 160 -736 48
WIRE -720 160 -736 160
WIRE -640 160 -656 160
WIRE -544 160 -544 32
WIRE -544 160 -560 160
WIRE 512 160 512 48
WIRE 512 160 496 160
WIRE 608 160 608 128
WIRE 896 160 896 48
WIRE 912 160 896 160
WIRE 992 160 976 160
WIRE -352 176 -352 64
WIRE -352 176 -368 176
WIRE -256 176 -256 144
WIRE 32 176 32 64
WIRE 48 176 32 176
WIRE 128 176 112 176
WIRE 320 176 320 0
WIRE 320 176 208 176
WIRE -1216 192 -1216 160
WIRE -928 192 -928 0
WIRE 416 192 416 160
WIRE 704 192 704 0
WIRE -448 208 -448 176
WIRE -160 208 -160 32
WIRE -864 224 -896 224
WIRE -848 224 -864 224
WIRE 768 224 736 224
WIRE 784 224 768 224
WIRE -96 240 -128 240
WIRE -80 240 -96 240
WIRE -736 256 -736 160
WIRE -736 256 -784 256
WIRE 896 256 896 160
WIRE 896 256 848 256
WIRE 992 256 992 240
WIRE 1056 256 992 256
WIRE 32 272 32 176
WIRE 32 272 -16 272
WIRE 992 272 992 256
WIRE -1152 288 -1216 288
WIRE -1120 288 -1152 288
WIRE 480 288 416 288
WIRE 512 288 480 288
WIRE -384 304 -448 304
WIRE -352 304 -384 304
WIRE -1024 320 -1024 288
WIRE 608 320 608 288
WIRE -256 336 -256 304
WIRE -1184 352 -1216 352
WIRE -1152 352 -1184 352
WIRE -736 352 -736 336
WIRE 448 352 416 352
WIRE 480 352 448 352
WIRE 896 352 896 336
WIRE -1184 368 -1184 352
WIRE -736 368 -736 352
WIRE -416 368 -448 368
WIRE -384 368 -416 368
WIRE 32 368 32 352
WIRE 448 368 448 352
WIRE 896 368 896 352
WIRE -1120 384 -1120 288
WIRE -992 384 -1120 384
WIRE -864 384 -864 224
WIRE -864 384 -928 384
WIRE -416 384 -416 368
WIRE 32 384 32 368
WIRE 512 384 512 288
WIRE 640 384 512 384
WIRE 768 384 768 224
WIRE 768 384 704 384
WIRE -352 400 -352 304
WIRE -224 400 -352 400
WIRE -96 400 -96 240
WIRE -96 400 -160 400
WIRE 992 400 992 352
WIRE -448 688 -448 656
WIRE -336 688 -336 656
FLAG -448 768 0
FLAG -336 768 0
FLAG -448 656 Vdd
FLAG -336 656 Vss
FLAG -256 336 Vss
FLAG -256 144 Vdd
FLAG -416 384 0
FLAG -448 208 0
FLAG 32 368 Vss
FLAG -160 -112 0
FLAG 608 320 Vss
FLAG 608 128 Vdd
FLAG 448 368 0
FLAG 416 192 0
FLAG 896 352 Vss
FLAG 992 400 0
FLAG 768 224 OSCB
FLAG -96 240 OSCA
FLAG 1056 256 OUTB
FLAG 704 -80 0
FLAG 32 272 OUTA
FLAG -1024 320 Vss
FLAG -1024 128 Vdd
FLAG -1184 368 0
FLAG -1216 192 0
FLAG -736 352 Vss
FLAG -928 -128 0
DATAFLAG -48 64 "$-V(N002)"
DATAFLAG 816 48 "$-V(N002)"
DATAFLAG -816 48 "$-V(N002)"
DATAFLAG -144 16 "$-V(N001)"
SYMBOL voltage -448 672 R0
WINDOW 123 0 0 Left 2
WINDOW 39 0 0 Left 2
SYMATTR InstName VDD
SYMATTR Value 12
SYMBOL voltage -336 672 R0
WINDOW 123 0 0 Left 2
WINDOW 39 0 0 Left 2
SYMATTR InstName VSS
SYMATTR Value -12
SYMBOL LM13700 -288 160 R0
SYMATTR InstName U1A
SYMBOL diode -464 304 R0
SYMATTR InstName D1A
SYMATTR Value 1N4148
SYMBOL diode -368 368 R180
WINDOW 0 24 64 Left 2
WINDOW 3 24 0 Left 2
SYMATTR InstName D2A
SYMATTR Value 1N4148
SYMBOL res -352 160 R90
WINDOW 0 0 56 VBottom 2
WINDOW 3 32 56 VTop 2
SYMATTR InstName R1A
SYMATTR Value 1k
SYMBOL res -240 48 R90
WINDOW 0 0 56 VBottom 2
WINDOW 3 32 56 VTop 2
SYMATTR InstName R2A
SYMATTR Value 15k
SYMBOL res 16 256 R0
SYMATTR InstName R3A
SYMATTR Value 4.7k
SYMBOL cap -160 384 R90
WINDOW 0 0 32 VBottom 2
WINDOW 3 32 32 VTop 2
SYMATTR InstName C1A
SYMATTR Value 50n
SYMBOL current -160 -64 R0
WINDOW 123 0 0 Left 0
WINDOW 39 0 0 Left 0
SYMATTR InstName ImodA
SYMATTR Value 150µ
SYMBOL res 112 192 R270
WINDOW 0 32 56 VTop 2
WINDOW 3 0 56 VBottom 2
SYMATTR InstName R5A
SYMATTR Value 50k
SYMBOL cap 112 160 R90
WINDOW 0 0 32 VBottom 2
WINDOW 3 32 32 VTop 2
SYMATTR InstName C2A
SYMATTR Value 1µ
SYMBOL LM13700 576 144 R0
SYMATTR InstName U1B
SYMBOL diode 400 288 R0
SYMATTR InstName D1B
SYMATTR Value 1N4148
SYMBOL diode 496 352 R180
WINDOW 0 24 64 Left 2
WINDOW 3 24 0 Left 2
SYMATTR InstName D2B
SYMATTR Value 1N4148
SYMBOL res 512 144 R90
WINDOW 0 0 56 VBottom 2
WINDOW 3 32 56 VTop 2
SYMATTR InstName R1B
SYMATTR Value 1k
SYMBOL res 624 32 R90
WINDOW 0 0 56 VBottom 2
WINDOW 3 32 56 VTop 2
SYMATTR InstName R2B
SYMATTR Value 15k
SYMBOL res 880 240 R0
SYMATTR InstName R3B
SYMATTR Value 4.7k
SYMBOL cap 704 368 R90
WINDOW 0 0 32 VBottom 2
WINDOW 3 32 32 VTop 2
SYMATTR InstName C1B
SYMATTR Value 50n
SYMBOL res 976 144 R0
SYMATTR InstName R5B
SYMATTR Value 10k
SYMBOL res 976 256 R0
SYMATTR InstName R4B
SYMATTR Value 1k
SYMBOL cap 976 144 R90
WINDOW 0 0 32 VBottom 2
WINDOW 3 32 32 VTop 2
SYMATTR InstName C2B
SYMATTR Value 1µ
SYMBOL current 704 -80 R0
WINDOW 123 0 0 Left 0
WINDOW 39 0 0 Left 0
SYMATTR InstName ImodB
SYMATTR Value 300µ
SYMBOL LM13700 -1056 144 R0
SYMATTR InstName U1
SYMBOL diode -1232 288 R0
WINDOW 3 66 55 Left 2
SYMATTR Value 1N4148
SYMATTR InstName D1
SYMBOL diode -1136 352 R180
WINDOW 0 24 64 Left 2
WINDOW 3 90 18 Left 2
SYMATTR InstName D2
SYMATTR Value 1N4148
SYMBOL res -1120 144 R90
WINDOW 0 0 56 VBottom 2
WINDOW 3 32 56 VTop 2
SYMATTR InstName R1
SYMATTR Value 1k
SYMBOL res -1008 32 R90
WINDOW 0 0 56 VBottom 2
WINDOW 3 32 56 VTop 2
SYMATTR InstName R2
SYMATTR Value 15k
SYMBOL res -752 240 R0
SYMATTR InstName R3
SYMATTR Value 4.7k
SYMBOL cap -928 368 R90
WINDOW 0 0 32 VBottom 2
WINDOW 3 32 32 VTop 2
SYMATTR InstName C1
SYMATTR Value 50n
SYMBOL current -928 -80 R0
WINDOW 123 0 0 Left 0
WINDOW 39 0 0 Left 0
SYMATTR InstName ImodA1
SYMATTR Value 200µ
SYMBOL res -656 176 R270
WINDOW 0 32 56 VTop 2
WINDOW 3 0 56 VBottom 2
SYMATTR InstName R4
SYMATTR Value 50k
SYMBOL cap -656 144 R90
WINDOW 0 0 32 VBottom 2
WINDOW 3 32 32 VTop 2
SYMATTR InstName C2
SYMATTR Value 1µ
TEXT -200 608 Left 2 !.tran 0 2\n.op\n*.tran 20u 200m\n*.AC  DEC  100 20 20k\n.IC V(OSCA)=6 V(OSCB)=6\n \n*.step temp 20 45 5\n*.step param RES list 1k 10k 100k\n*.step param RES 22k 23k 200\n* remarque : step colors : GREEN BLUE RED CYAN PINK GRAY DARKGREEN DARKBLUE MAROON DARKPINK DARKRED DARKYELLOW (cycle of 12 colours)\n* step param syntax : replace the numerical value by "{CV}" in the parameter of interest (e.g., V_cutoff_cv)\n*.param C1=470n\n*.wave "C:\\Users\\Pierre\\Desktop\\projet\\tri2.wav" 16 44.1k Vtri\n.wave "E:\\projet\\fmout.wav" 16 44.1k OUTB\n.lib lm13700.sub
